Output_case1/output_voltage_1440.csv
# Output_case1\output_voltage_1440.csv run at 2000-01-02 00:00:00 EST on 963 nodes
node_name,voltA_mag,voltA_angle,voltB_mag,voltB_angle,voltC_mag,voltC_angle
SourceBus,6668.395609,0.000000,6668.395609,4.188790,6668.395609,2.094395
Bus1,252.129291,-0.524094,252.108492,3.664553,252.122911,1.570315
Bus2,252.124828,-0.524086,252.099322,3.664560,252.117570,1.570312
Bus3,252.124360,-0.524085,252.098361,3.664560,252.117010,1.570312
Bus4,252.123922,-0.524084,252.097460,3.664561,252.116485,1.570312
Bus5,252.123540,-0.524084,252.096675,3.664561,252.116028,1.570311
Bus6,252.122938,-0.524083,252.095438,3.664562,252.115307,1.570311
Bus7,252.081943,-0.524011,252.011207,3.664625,252.066244,1.570288
Bus8,252.080107,-0.524008,252.007434,3.664628,252.064047,1.570287
Bus9,252.078579,-0.524005,252.004294,3.664630,252.062218,1.570286
Bus10,252.077238,-0.524003,252.001539,3.664632,252.060613,1.570285
Bus11,252.076237,-0.524001,251.999483,3.664634,252.059415,1.570285
Bus12,252.075297,-0.523999,251.997552,3.664635,252.058291,1.570284
Bus13,252.074720,-0.523998,251.996366,3.664636,252.057599,1.570284
Bus14,252.073282,-0.523996,251.993411,3.664638,252.055878,1.570283
Bus15,252.061632,-0.523976,251.969473,3.664656,252.041935,1.570276
Bus16,252.061632,-0.523976,251.969473,3.664656,252.041935,1.570276
Bus17,252.047504,-0.523951,251.940446,3.664678,252.025027,1.570268
Bus18,252.061632,-0.523976,251.969473,3.664656,252.041935,1.570276
Bus19,252.046532,-0.523949,251.938448,3.664679,252.023864,1.570268
Bus20,252.061632,-0.523976,251.969473,3.664656,252.041935,1.570276
Bus21,252.045441,-0.523947,251.936206,3.664681,252.022557,1.570267
Bus22,252.061632,-0.523976,251.969473,3.664656,252.041935,1.570276
Bus23,252.043664,-0.523944,251.932554,3.664684,252.020430,1.570266
Bus24,252.061632,-0.523976,251.969473,3.664656,252.041935,1.570276
Bus25,252.040431,-0.523939,251.925911,3.664689,252.016561,1.570264
Bus26,252.061632,-0.523976,251.969473,3.664656,252.041935,1.570276
Bus27,252.029702,-0.523928,251.925943,3.664688,252.016678,1.570265
Bus28,252.012394,-0.523879,251.841450,3.664772,251.963918,1.570226
Bus29,252.061632,-0.523976,251.969473,3.664656,252.041935,1.570276
Bus30,252.029424,-0.523928,251.925944,3.664688,252.016681,1.570265
Bus31,252.027093,-0.523925,251.925951,3.664688,252.016706,1.570265
Bus32,252.004931,-0.523863,251.818965,3.664795,251.949904,1.570216
Bus33,252.061632,-0.523976,251.969473,3.664656,252.041935,1.570276
Bus34,252.028788,-0.523927,251.925946,3.664688,252.016688,1.570265
Bus35,252.027004,-0.523925,251.925951,3.664688,252.016707,1.570265
Bus36,252.004964,-0.523863,251.815893,3.664798,251.949913,1.570216
Bus37,251.981376,-0.523819,251.753944,3.664860,251.907239,1.570191
Bus38,252.061632,-0.523976,251.969473,3.664656,252.041935,1.570276
Bus39,252.026877,-0.523925,251.925952,3.664688,252.016709,1.570265
Bus40,252.004966,-0.523863,251.815787,3.664798,251.949913,1.570216
Bus41,252.004970,-0.523863,251.815404,3.664798,251.949914,1.570216
Bus42,251.965031,-0.523788,251.708825,3.664905,251.877633,1.570173
Bus43,251.981376,-0.523819,251.753944,3.664860,251.907239,1.570191
Bus44,252.061632,-0.523976,251.969473,3.664656,252.041935,1.570276
Bus45,252.026715,-0.523925,251.925952,3.664688,252.016711,1.570265
Bus46,252.004966,-0.523863,251.815739,3.664798,251.949913,1.570216
Bus47,252.004983,-0.523863,251.814228,3.664799,251.949918,1.570216
Bus48,251.952680,-0.523765,251.674730,3.664939,251.855261,1.570160
Bus49,251.981376,-0.523819,251.753944,3.664860,251.907239,1.570191
Bus50,252.061632,-0.523976,251.969473,3.664656,252.041935,1.570276
Bus51,252.026318,-0.523925,251.925953,3.664688,252.016715,1.570265
Bus52,252.004967,-0.523863,251.815688,3.664798,251.949913,1.570216
Bus53,251.950899,-0.523761,251.669815,3.664944,251.852036,1.570158
Bus54,251.952680,-0.523765,251.674730,3.664939,251.855261,1.570160
Bus55,251.981376,-0.523819,251.753944,3.664860,251.907239,1.570191
Bus56,252.061632,-0.523976,251.969473,3.664656,252.041935,1.570276
Bus57,252.025978,-0.523924,251.925954,3.664688,252.016719,1.570265
Bus58,252.004967,-0.523863,251.815639,3.664798,251.949913,1.570216
Bus59,251.942832,-0.523746,251.647548,3.664966,251.837425,1.570149
Bus60,251.952680,-0.523765,251.674730,3.664939,251.855261,1.570160
Bus61,251.981376,-0.523819,251.753944,3.664860,251.907239,1.570191
Bus62,252.061632,-0.523976,251.969473,3.664656,252.041935,1.570276
Bus63,252.024350,-0.523923,251.925959,3.664688,252.016736,1.570265
Bus64,252.004967,-0.523863,251.815610,3.664798,251.949914,1.570216
Bus65,251.942139,-0.523744,251.642929,3.664972,251.834139,1.570146
Bus66,251.922530,-0.523726,251.647609,3.664965,251.837646,1.570150
Bus67,251.952680,-0.523765,251.674730,3.664939,251.855261,1.570160
Bus68,251.981376,-0.523819,251.753944,3.664860,251.907239,1.570191
Bus69,252.061632,-0.523976,251.969473,3.664656,252.041935,1.570276
Bus70,252.018594,-0.523917,251.925976,3.664687,252.016799,1.570265
Bus71,252.004968,-0.523863,251.815554,3.664798,251.949914,1.570216
Bus72,251.933943,-0.523718,251.588359,3.665045,251.795326,1.570112
Bus73,251.921591,-0.523725,251.647612,3.664965,251.837657,1.570150
Bus74,251.913545,-0.523717,251.647636,3.664964,251.837745,1.570150
Bus75,251.952680,-0.523765,251.674730,3.664939,251.855261,1.570160
Bus76,251.981376,-0.523819,251.753944,3.664860,251.907239,1.570191
Bus77,252.061632,-0.523976,251.969473,3.664656,252.041935,1.570276
Bus78,252.004971,-0.523863,251.815265,3.664798,251.949915,1.570216
Bus79,251.931087,-0.523708,251.569338,3.665071,251.781797,1.570100
Bus80,251.952680,-0.523765,251.674730,3.664939,251.855261,1.570160
Bus81,251.981376,-0.523819,251.753944,3.664860,251.907239,1.570191
Bus82,252.061632,-0.523976,251.969473,3.664656,252.041935,1.570276
Bus83,252.004983,-0.523863,251.814180,3.664800,251.949918,1.570216
Bus84,251.930463,-0.523706,251.565187,3.665076,251.778844,1.570097
Bus85,251.952680,-0.523765,251.674730,3.664939,251.855261,1.570160
Bus86,251.981376,-0.523819,251.753944,3.664860,251.907239,1.570191
Bus87,252.061632,-0.523976,251.969473,3.664656,252.041935,1.570276
Bus88,251.929199,-0.523702,251.556769,3.665087,251.772857,1.570092
Bus89,251.952680,-0.523765,251.674730,3.664939,251.855261,1.570160
Bus90,251.981376,-0.523819,251.753944,3.664860,251.907239,1.570191
Bus91,252.061632,-0.523976,251.969473,3.664656,252.041935,1.570276
Bus92,251.928007,-0.523698,251.548831,3.665098,251.767211,1.570087
Bus93,251.981376,-0.523819,251.753944,3.664860,251.907239,1.570191
Bus94,252.061632,-0.523976,251.969473,3.664656,252.041935,1.570276
Bus95,251.927314,-0.523696,251.544217,3.665104,251.763929,1.570084
Bus96,251.981376,-0.523819,251.753944,3.664860,251.907239,1.570191
Bus97,252.061632,-0.523976,251.969473,3.664656,252.041935,1.570276
Bus98,251.926856,-0.523695,251.541170,3.665108,251.761762,1.570082
Bus99,251.981376,-0.523819,251.753944,3.664860,251.907239,1.570191
Bus100,252.061632,-0.523976,251.969473,3.664656,252.041935,1.570276
Bus101,251.926224,-0.523693,251.536963,3.665114,251.758769,1.570079
Bus102,251.981376,-0.523819,251.753944,3.664860,251.907239,1.570191
Bus103,252.061632,-0.523976,251.969473,3.664656,252.041935,1.570276
Bus104,251.926236,-0.523693,251.536905,3.665114,251.758757,1.570079
Bus105,251.925741,-0.523692,251.534478,3.665117,251.756858,1.570078
Bus106,251.981376,-0.523819,251.753944,3.664860,251.907239,1.570191
Bus107,251.926250,-0.523693,251.536834,3.665114,251.758741,1.570079
Bus108,251.925466,-0.523691,251.533070,3.665119,251.755774,1.570077
Bus109,251.981376,-0.523819,251.753944,3.664860,251.907239,1.570191
Bus110,251.926266,-0.523693,251.536753,3.665114,251.758724,1.570079
Bus111,251.914641,-0.523667,251.477483,3.665195,251.713010,1.570047
Bus112,251.981376,-0.523819,251.753944,3.664860,251.907239,1.570191
Bus113,251.926291,-0.523692,251.536628,3.665114,251.758697,1.570079
Bus114,251.913557,-0.523664,251.471914,3.665202,251.708726,1.570044
Bus115,251.981376,-0.523819,251.753944,3.664860,251.907239,1.570191
Bus116,251.926323,-0.523692,251.536468,3.665114,251.758662,1.570078
Bus117,251.913849,-0.523664,251.471184,3.665203,251.708287,1.570042
Bus118,251.907393,-0.523661,251.461303,3.665209,251.699575,1.570041
Bus119,251.981376,-0.523819,251.753944,3.664860,251.907239,1.570191
Bus120,251.926346,-0.523692,251.536353,3.665114,251.758637,1.570078
Bus121,251.913849,-0.523664,251.471184,3.665203,251.708287,1.570042
Bus122,251.913991,-0.523664,251.470829,3.665203,251.708073,1.570042
Bus123,251.896276,-0.523656,251.442168,3.665221,251.683070,1.570034
Bus124,251.981376,-0.523819,251.753944,3.664860,251.907239,1.570191
Bus125,251.926378,-0.523692,251.536191,3.665114,251.758602,1.570078
Bus126,251.913849,-0.523664,251.471184,3.665203,251.708287,1.570042
Bus127,251.914658,-0.523664,251.469159,3.665203,251.707068,1.570038
Bus128,251.891277,-0.523654,251.433563,3.665226,251.675648,1.570032
Bus129,251.981376,-0.523819,251.753944,3.664860,251.907239,1.570191
Bus130,251.926413,-0.523692,251.536015,3.665114,251.758564,1.570077
Bus131,251.913849,-0.523664,251.471184,3.665203,251.708287,1.570042
Bus132,251.913733,-0.523663,251.469162,3.665203,251.707078,1.570038
Bus133,251.916827,-0.523663,251.464392,3.665206,251.704130,1.570027
Bus134,251.889790,-0.523653,251.431003,3.665228,251.673440,1.570031
Bus135,251.981376,-0.523819,251.753944,3.664860,251.907239,1.570191
Bus136,251.926446,-0.523692,251.535849,3.665114,251.758528,1.570077
Bus137,251.913849,-0.523664,251.471184,3.665203,251.708287,1.570042
Bus138,251.913654,-0.523663,251.469162,3.665203,251.707079,1.570038
Bus139,251.918441,-0.523662,251.460845,3.665207,251.701944,1.570019
Bus140,251.888111,-0.523653,251.428113,3.665229,251.670948,1.570030
Bus141,251.981376,-0.523819,251.753944,3.664860,251.907239,1.570191
Bus142,251.926500,-0.523692,251.535577,3.665114,251.758469,1.570077
Bus143,251.913849,-0.523664,251.471184,3.665203,251.708287,1.570042
Bus144,251.913575,-0.523663,251.469162,3.665203,251.707079,1.570038
Bus145,251.919521,-0.523661,251.458470,3.665208,251.700480,1.570014
Bus146,251.886532,-0.523652,251.425395,3.665231,251.668603,1.570029
Bus147,251.981376,-0.523819,251.753944,3.664860,251.907239,1.570191
Bus148,251.926758,-0.523691,251.534282,3.665113,251.758189,1.570074
Bus149,251.913849,-0.523664,251.471184,3.665203,251.708287,1.570042
Bus150,251.913512,-0.523662,251.469163,3.665203,251.707080,1.570038
Bus151,251.919702,-0.523664,251.459013,3.665210,251.698717,1.570013
Bus152,251.919812,-0.523660,251.431939,3.665234,251.700560,1.570012
Bus153,251.884690,-0.523651,251.422224,3.665233,251.665868,1.570028
Bus154,251.981376,-0.523819,251.753944,3.664860,251.907239,1.570191
Bus155,251.926814,-0.523691,251.534000,3.665113,251.758128,1.570074
Bus156,251.913849,-0.523664,251.471184,3.665203,251.708287,1.570042
Bus157,251.913418,-0.523662,251.469163,3.665203,251.707081,1.570038
Bus158,251.920182,-0.523672,251.460455,3.665216,251.694042,1.570011
Bus159,251.919829,-0.523660,251.430325,3.665236,251.700565,1.570012
Bus160,251.884159,-0.523651,251.421311,3.665234,251.665081,1.570028
Bus161,251.981376,-0.523819,251.753944,3.664860,251.907239,1.570191
Bus162,251.926942,-0.523690,251.522278,3.665125,251.758163,1.570073
Bus163,251.926770,-0.523691,251.533766,3.665113,251.757811,1.570073
Bus164,251.913849,-0.523664,251.471184,3.665203,251.708287,1.570042
Bus165,251.913303,-0.523662,251.469163,3.665203,251.707082,1.570038
Bus166,251.920349,-0.523675,251.460956,3.665218,251.692418,1.570011
Bus167,251.919845,-0.523660,251.428849,3.665237,251.700569,1.570012
Bus168,251.881148,-0.523649,251.416127,3.665237,251.660609,1.570026
Bus169,251.981376,-0.523819,251.753944,3.664860,251.907239,1.570191
Bus170,251.926967,-0.523690,251.520064,3.665127,251.758170,1.570073
Bus171,251.926711,-0.523691,251.533455,3.665113,251.757390,1.570073
Bus172,251.913849,-0.523664,251.471184,3.665203,251.708287,1.570042
Bus173,251.913217,-0.523662,251.469163,3.665203,251.707083,1.570038
Bus174,251.920349,-0.523675,251.460956,3.665218,251.692418,1.570011
Bus175,251.920388,-0.523675,251.461100,3.665218,251.679274,1.570024
Bus176,251.919852,-0.523660,251.428237,3.665238,251.700571,1.570012
Bus177,251.879447,-0.523649,251.413199,3.665239,251.658084,1.570025
Bus178,251.927017,-0.523690,251.515495,3.665131,251.758184,1.570073
Bus179,251.926692,-0.523691,251.533374,3.665113,251.757413,1.570073
Bus180,251.926715,-0.523692,251.533468,3.665113,251.756171,1.570074
Bus181,251.913849,-0.523664,251.471184,3.665203,251.708287,1.570042
Bus182,251.913117,-0.523662,251.469164,3.665203,251.707084,1.570038
Bus183,251.920349,-0.523675,251.460956,3.665218,251.692418,1.570011
Bus184,251.920392,-0.523675,251.461115,3.665218,251.677855,1.570025
Bus185,251.919866,-0.523660,251.426916,3.665239,251.700575,1.570012
Bus186,251.878184,-0.523648,251.411025,3.665240,251.656209,1.570024
Bus187,251.926615,-0.523691,251.533054,3.665113,251.757504,1.570072
Bus188,251.926730,-0.523692,251.533524,3.665114,251.751124,1.570079
Bus189,251.913849,-0.523664,251.471184,3.665203,251.708287,1.570042
Bus190,251.913023,-0.523662,251.469164,3.665203,251.707086,1.570038
Bus191,251.920349,-0.523675,251.460956,3.665218,251.692418,1.570011
Bus192,251.920349,-0.523675,251.460956,3.665218,251.692418,1.570011
Bus193,251.920397,-0.523675,251.461130,3.665218,251.676481,1.570027
Bus194,251.919903,-0.523660,251.423551,3.665243,251.700585,1.570012
Bus195,251.877049,-0.523648,251.409071,3.665241,251.654523,1.570024
Bus196,251.926477,-0.523690,251.532483,3.665112,251.757666,1.570072
Bus197,251.926731,-0.523692,251.533529,3.665114,251.750630,1.570079
Bus198,251.926731,-0.523692,251.533527,3.665114,251.750839,1.570079
Bus199,251.913849,-0.523664,251.471184,3.665203,251.708287,1.570042
Bus200,251.912922,-0.523662,251.469164,3.665203,251.707087,1.570038
...
SourceBus_1,6667.896262,-0.000146,6667.734428,4.188659,6667.901142,2.094278
LOAD1,252.028788,-0.523927,251.925946,3.664688,252.016688,1.570265
LOAD2,252.004983,-0.523863,251.814228,3.664799,251.949918,1.570216
LOAD3,252.018594,-0.523917,251.925976,3.664687,252.016799,1.570265
LOAD4,251.921591,-0.523725,251.647612,3.664965,251.837657,1.570150
LOAD5,251.913545,-0.523717,251.647636,3.664964,251.837745,1.570150
LOAD6,252.004983,-0.523863,251.814180,3.664800,251.949918,1.570216
LOAD7,251.927017,-0.523690,251.515495,3.665131,251.758184,1.570073
LOAD8,251.926735,-0.523692,251.533543,3.665114,251.749383,1.570080
LOAD9,251.921922,-0.523686,251.532496,3.665112,251.757716,1.570072
LOAD10,251.926725,-0.523690,251.524455,3.665119,251.757744,1.570070
LOAD11,251.926725,-0.523690,251.524430,3.665119,251.757744,1.570070
LOAD12,251.926736,-0.523692,251.533546,3.665114,251.749050,1.570081
LOAD13,251.920527,-0.523658,251.366519,3.665299,251.700757,1.570008
LOAD14,251.911185,-0.523660,251.469170,3.665203,251.707106,1.570038
LOAD15,251.920165,-0.523659,251.399612,3.665266,251.700658,1.570010
LOAD16,251.920452,-0.523676,251.461332,3.665219,251.658059,1.570045
LOAD17,251.920475,-0.523677,251.461416,3.665219,251.650344,1.570052
LOAD18,251.853286,-0.523558,251.299676,3.665315,251.609199,1.569930
LOAD19,251.860495,-0.523641,251.378198,3.665263,251.623971,1.570015
LOAD20,251.849384,-0.523598,251.335721,3.665290,251.614266,1.569972
LOAD21,251.855341,-0.523632,251.390132,3.665252,251.638277,1.570018
LOAD22,251.849089,-0.523598,251.335722,3.665290,251.614269,1.569972
LOAD23,251.854323,-0.523526,251.214861,3.665390,251.612798,1.569894
LOAD24,251.844297,-0.523652,251.357109,3.665287,251.546230,1.570064
LOAD25,251.804184,-0.523473,251.245646,3.665312,251.598625,1.569923
LOAD26,251.795381,-0.523613,251.298491,3.665282,251.566932,1.570018
LOAD27,251.833859,-0.523649,251.347262,3.665288,251.569779,1.570034
LOAD28,251.833890,-0.523649,251.347374,3.665288,251.559620,1.570044
LOAD29,251.787040,-0.523454,251.235228,3.665318,251.591937,1.569922
LOAD30,251.804732,-0.523474,251.245644,3.665312,251.598619,1.569923
LOAD31,251.790936,-0.523458,251.235217,3.665319,251.591894,1.569922
LOAD32,251.782851,-0.523607,251.299413,3.665267,251.557747,1.570027
LOAD33,251.810596,-0.523484,251.226768,3.665352,251.561122,1.569927
LOAD34,251.816553,-0.523487,251.254030,3.665314,251.602866,1.569918
LOAD35,251.811061,-0.523480,251.220794,3.665357,251.577408,1.569908
LOAD36,251.809720,-0.523473,251.209043,3.665360,251.582902,1.569907
LOAD37,251.809769,-0.523472,251.204517,3.665364,251.582916,1.569907
LOAD38,251.768022,-0.523599,251.286247,3.665262,251.554313,1.570032
LOAD39,251.766405,-0.523603,251.276371,3.665280,251.533647,1.570026
LOAD40,251.769397,-0.523604,251.261566,3.665305,251.526617,1.570005
LOAD41,251.786005,-0.523614,251.155898,3.665476,251.475738,1.569950
LOAD42,251.766406,-0.523603,251.276373,3.665280,251.533468,1.570027
LOAD43,251.784792,-0.523680,251.224677,3.665464,251.385463,1.570040
LOAD44,251.790641,-0.523610,251.300829,3.665275,251.564586,1.570020
LOAD45,251.785790,-0.523615,251.175616,3.665457,251.475679,1.569951
LOAD46,251.679230,-0.523514,251.287491,3.665251,251.553279,1.570038
LOAD47,251.784775,-0.523679,251.224618,3.665464,251.390920,1.570034
LOAD48,251.688135,-0.523523,251.287465,3.665252,251.553182,1.570038
LOAD49,251.669439,-0.523504,251.287521,3.665250,251.553386,1.570038
LOAD50,251.780686,-0.523656,251.206595,3.665466,251.440015,1.569979
LOAD51,251.766695,-0.523601,251.244618,3.665344,251.507092,1.569987
LOAD52,251.771268,-0.523655,251.218370,3.665455,251.439535,1.569988
LOAD53,251.780686,-0.523656,251.206011,3.665466,251.440015,1.569979
LOAD54,251.764952,-0.523599,251.244623,3.665344,251.507111,1.569987
LOAD55,251.770910,-0.523654,251.218394,3.665454,251.439624,1.569988
